tests/corpus/electricdss-tst/Version8/Distrib/Examples/InverterModels/PVSystem/InvControl/watt-pf_watt-var/dss/SnapShot_wattpf.dss
Clear
Set DefaultBaseFrequency=60
New Circuit.TheveninEquivalente bus1=A pu=1.0 basekv=13.8 
~ Z0=[10, 10] Z1=[10, 10]

New XYCurve.Eff npts=4 xarray=[.1 .2 .4 1.0] yarray=[1 1 1 1]

New XYCurve.FatorPvsT npts=4 xarray=[0 25 75 100] yarray=[1 1 1 1] 

New PVSystem.PV phases=3 bus1=A Pmpp=1000 kV=13.8 conn=wye EffCurve=Eff 
~ P-TCurve=FatorPvsT Temperature=25

New XYcurve.generic npts=6 yarray=[0.9 0.9 1.0 -1.0 -0.9 -0.9] xarray=[0.0 0.2 0.35 0.35 0.5 1.0]

New InvControl.Wattpf mode=WATTPF wattpf_curve=generic

Set voltagebases=[13.8]
Calcvoltagebases

Set maxcontroli=2000

!Solve

!Show Power kVA elements


